! === module MOM_domains ===
LAYOUT = 16,15   
                                ! The processor layout that was actually used.
IO_LAYOUT = 1, 1                ! default = 1
                                ! The processor layout to be used, or 0,0 to automatically set the io_layout to
                                ! be the same as the layout.
! === Added with RM6 ===
