! NOTE: User made changes to this file override the settings in MOM_input
!       This provides a clear record of how your configuration differs from the standard

#override TOPO_FILE = "topog_cropped.nc"

! === module MOM_open_boundary ===
OBC_NUMBER_OF_SEGMENTS = 1
OBC_FREESLIP_VORTICITY = True
OBC_FREESLIP_STRAIN = True
!OBC_COMPUTED_VORTICITY = True
OBC_ZERO_BIHARMONIC = True

OBC_SEGMENT_001 = "J=N,I=N:0,FLATHER,ORLANSKI,NUDGED"
OBC_SEGMENT_001_VELOCITY_NUDGING_TIMESCALES = .3, 360.0 ! inflow and outflow timescales
BRUSHCUTTER_MODE = True ! read data on supergrid
OBC_SEGMENT_001_DATA = "U=file:forcing_access_yr2_25km_fill.nc(u),V=file:forcing_access_yr2_25km_fill.nc(v),SSH=file:forcing_access_yr2_25km_fill.nc(eta_t),TEMP=file:forcing_access_yr2_25km_fill.nc(pot_temp),SALT=file:forcing_access_yr2_25km_fill.nc(salt)"
!RAMP_OBCS = True

OBC_TRACER_RESERVOIR_LENGTH_SCALE_OUT = 30000
OBC_TRACER_RESERVOIR_LENGTH_SCALE_IN = 3000

! sponges
SPONGE = False
