! This input file provides the adjustable run-time parameters for version 6 of the Modular Ocean Model (MOM6).

! === module MOM ===
DT = 1800.0
                                ! "[s]
                                ! The (baroclinic) dynamics time step.  The time-step that
                                ! is actually used will be an integer fraction of the
                                ! forcing time-step (DT_FORCING in ocean-only mode or the
                                ! coupling timestep in coupled mode.)"

DT_THERM = 3600.0
                                ! "[s] default = 3600.0
                                ! The thermodynamic and tracer advection time step.
                                ! Ideally DT_THERM should be an integer multiple of DT
                                ! and less than the forcing or coupling time-step.
                                ! By default DT_THERM is set to DT.
                                ! The minimum amount of time in seconds between
                                ! calculations of depth-space diagnostics. Making this
                                ! larger than DT_THERM reduces the  performance penalty
                                ! of regridding to depth online."

HFREEZE = 10.0
                                ! "[m] default = -1.0
                                ! If HFREEZE > 0, melt potential will be computed. The actual depth
                                ! over which melt potential is computed will be min(HFREEZE, OBLD),
                                ! where OBLD is the boundary layer depth. If HFREEZE <= 0 (default),
                                ! melt potential will not be computed."

C_P = 3992.0
                                ! "[J kg-1 K-1] default = 3991.86795711963
                                ! The heat capacity of sea water, approximated as a
                                ! constant. This is only used if ENABLE_THERMODYNAMICS is
                                ! true. The default value is from the TEOS-10 definition
                                ! of conservative temperature."

USE_REGRIDDING = True
                                ! "[Boolean] default = False
                                ! If True, use the ALE algorithm (regridding/remapping).
                                ! If False, use the layered isopycnal algorithm."

THICKNESSDIFFUSE = True
                                ! "[Boolean] default = False
                                ! If true, interfaces or isopycnal surfaces are diffused,
                                ! depending on the value of FULL_THICKNESSDIFFUSE."

THICKNESSDIFFUSE_FIRST = True
                                ! "[Boolean] default = False
                                ! If true, do thickness diffusion before dynamics.
                                ! This is only used if THICKNESSDIFFUSE is true."

DTBT_RESET_PERIOD = 0.0
                                ! "[s] default = 7200.0
                                ! The period between recalculations of DTBT (if DTBT <= 0).
                                ! If DTBT_RESET_PERIOD is negative, DTBT is set based
                                ! only on information available at initialization.  If 0,
                                ! DTBT will be set every dynamics time step. The default
                                ! is set by DT_THERM.  This is only used if SPLIT is true."

FRAZIL = True
                                ! "[Boolean] default = False
                                ! If true, water freezes if it gets too cold, and the
                                ! the accumulated heat deficit is returned in the
                                ! surface state.  FRAZIL is only used if
                                ! ENABLE_THERMODYNAMICS is true.
                                ! If true, apply geothermal heating."

MIN_SALINITY = 0.0
                                ! "[PPT] default = 0.01
                                !  The minimum value of salinity when BOUND_SALINITY=True. The default is 0.01
                                !  for backward compatibility but ideally should be 0."

BOUND_SALINITY = True
                                ! "[Boolean] default = False
                                ! If true, limit salinity to being positive. (The sea-ice
                                ! model may ask for more salt than is available and
                                ! drive the salinity negative otherwise.)"

USE_PSURF_IN_EOS = True
                                ! "[Boolean] default = True
                                ! If true, always include the surface pressure contributions in equation of
                                ! state calculations."

CHECK_BAD_SURFACE_VALS = True
                                ! "[Boolean] default = False
                                ! If true, check the surface state for ridiculous values."

SAVE_INITIAL_CONDS = True
                                ! "[Boolean] default = False
                                ! If true, write the initial conditions to a file given
                                ! by IC_OUTPUT_FILE."

USE_CONTEMP_ABSSAL = False      !   [Boolean] default = False
                                ! If true, the prognostics T&S are the conservative temperature and absolute
                                ! salinity. Care should be taken to convert them to potential temperature and
                                ! practical salinity before exchanging them with the coupler and/or reporting
                                ! T&S diagnostics.

DEFAULT_2018_ANSWERS = False
                                ! "[Boolean] default = True
                                ! This sets the default value for the various _2018_ANSWERS parameters."

! === module MOM_domains ===

TRIPOLAR_N = True
                                ! "[Boolean] default = False
                                ! Use tripolar connectivity at the northern edge of the
                                ! domain.  With TRIPOLAR_N, NIGLOBAL must be even."

NIHALO = 4
                                ! "default = 2
                                ! The number of halo points on each side in the
                                ! x-direction.  With STATIC_MEMORY_ this is set as NIHALO_
                                ! in MOM_memory.h at compile time; without STATIC_MEMORY_
                                ! the default is NIHALO_ in MOM_memory.h (if defined) or 2."

NJHALO = 4
                                ! "default = 2
                                ! The number of halo points on each side in the
                                ! y-direction.  With STATIC_MEMORY_ this is set as NJHALO_
                                ! in MOM_memory.h at compile time; without STATIC_MEMORY_
                                ! the default is NJHALO_ in MOM_memory.h (if defined) or 2."

NIGLOBAL = 360
                                ! "The total number of thickness grid points in the
                                ! x-direction in the physical domain. With STATIC_MEMORY_
                                ! this is set in MOM_memory.h at compile time."

NJGLOBAL = 300
                                ! "The total number of thickness grid points in the
                                ! y-direction in the physical domain. With STATIC_MEMORY_
                                ! this is set in MOM_memory.h at compile time.
                                ! The number of processors in the x-direction. With
                                ! STATIC_MEMORY_ this is set in MOM_memory.h at compile time.
                                ! The number of processors in the x-direction. With
                                ! STATIC_MEMORY_ this is set in MOM_memory.h at compile time.
                                ! The processor layout that was acutally used."

! === module MOM_verticalGrid ===
NK = 50
                                ! "[nondim]
                                ! The number of model layers."

! === module MOM_grid_init ===
GRID_CONFIG = mosaic
                                ! "A character string that determines the method for
                                ! defining the horizontal grid.  Current options are:
                                ! mosaic - read the grid from a mosaic (supergrid)
                                ! file set by GRID_FILE.
                                ! cartesian - use a (flat) Cartesian grid.
                                ! spherical - use a simple spherical grid.
                                ! mercator - use a Mercator spherical grid."

GRID_FILE = ocean_hgrid.nc
                                ! "Name of the file from which to read horizontal grid data."

TOPO_CONFIG = file
                                ! "This specifies how bathymetry is specified:
                                ! file - read bathymetric information from the file
                                ! specified by (TOPO_FILE).
                                ! flat - flat bottom set to MAXIMUM_DEPTH.
                                ! bowl - an analytically specified bowl-shaped basin
                                ! ranging between MAXIMUM_DEPTH and MINIMUM_DEPTH.
                                ! spoon - a similar shape to 'bowl', but with an vertical
                                ! wall at the southern face.
                                ! halfpipe - a zonally uniform channel with a half-sine
                                ! profile in the meridional direction.
                                ! benchmark - use the benchmark test case topography.
                                ! DOME - use a slope and channel configuration for the
                                ! DOME sill-overflow test case.
                                ! DOME2D - use a shelf and slope configuration for the
                                ! DOME2D gravity current/overflow test case.
                                ! seamount - Gaussian bump for spontaneous motion test case.
                                ! USER - call a user modified routine."

TOPO_FILE = topog.nc
                                ! "default = 'topog.nc'
                                ! The file from which the bathymetry is read."

MAXIMUM_DEPTH = 6000.0
                                ! "[m]
                                ! The maximum depth of the ocean."

MINIMUM_DEPTH = 0.5
                                ! "[m] default = 0.0
                                ! If MASKING_DEPTH is unspecified, then anything shallower than
                                ! MINIMUM_DEPTH is assumed to be land and all fluxes are masked out.
                                ! If MASKING_DEPTH is specified, then all depths shallower than
                                ! MINIMUM_DEPTH but depper than MASKING_DEPTH are rounded to
                                ! MINIMUM_DEPTH."

! === module MOM_fixed_initialization ===
INPUTDIR = "./INPUT/"
                                ! "The directory in which input files are found."

CHANNEL_CONFIG = global_1deg
                                ! "default = 'none'
                                ! A parameter that determines which set of channels are
                                ! restricted to specific  widths.  Options are:
                                ! none - All channels have the grid width.
                                ! global_1deg - Sets 16 specific channels appropriate
                                ! for a 1-degree model, as used in CM2G.
                                ! list - Read the channel locations and widths from a
                                ! text file, like MOM_channel_list in the MOM_SIS
                                ! test case.
                                ! file - Read open face widths everywhere from a
                                ! NetCDF file on the model grid."

! === module MOM_state_initialization ===
INIT_LAYERS_FROM_Z_FILE = True
                                ! "[Boolean] default = False
                                ! If true, intialize the layer thicknesses, temperatures,
                                ! and salnities from a Z-space file on a latitude-
                                ! longitude grid."

TEMP_SALT_Z_INIT_FILE = ocean_temp_salt.res.nc
                                ! "default = 'temp_salt_z.nc'
                                ! The name of the z-space input file used to initialize
                                ! the layer thicknesses, temperatures and salinities."

! Currently this is actually conservative temperature
Z_INIT_FILE_PTEMP_VAR = temp
                                ! "default = 'ptemp'
                                ! The name of the potential temperature variable in
                                ! TEMP_SALT_Z_INIT_FILE."

Z_INIT_FILE_SALT_VAR = salt
                                ! "default = 'salt'
                                ! The name of the salinity variable in
                                ! TEMP_SALT_Z_INIT_FILE."

TEMP_SALT_INIT_VERTICAL_REMAP_ONLY = True
                                ! "[Boolean] default = False"

Z_INIT_REMAP_OLD_ALG = False
                                ! "[Boolean] default = True
                                ! If false, uses the preferred remapping algorithm for initialization. If true,
                                ! use an older, less robust algorithm for remapping."

Z_INIT_ALE_REMAPPING = True
                                ! "[Boolean] default = False
                                ! If True, then remap straight to model coordinate from file."

Z_INIT_REMAP_GENERAL = True     !   [Boolean] default = False
                                ! If false, only initializes to z* coordinates. If true, allows initialization
                                ! directly to general coordinates.

! === module MOM_shared_initialization ===
GRID_ROTATION_ANGLE_BUGS = False
                                ! "[Boolean] default = True
                                ! If true, use an older algorithm to calculate the sine and
                                ! cosines needed rotate between grid-oriented directions and
                                ! true north and east.  Differences arise at the tripolar fold."

! === module MOM_coord_initialization ===
COORD_CONFIG = none
                                ! "This specifies how layers are to be defined:
                                ! file - read coordinate information from the file
                                ! specified by (COORD_FILE).
                                ! linear - linear based on interfaces not layesrs.
                                ! ts_ref - use reference temperature and salinity
                                ! ts_range - use range of temperature and salinity
                                ! (T_REF and S_REF) to determine surface density
                                ! and GINT calculate internal densities.
                                ! gprime - use reference density (RHO_0) for surface
                                ! density and GINT calculate internal densities.
                                ! ts_profile - use temperature and salinity profiles
                                ! (read from COORD_FILE) to set layer densities.
                                ! USER - call a user modified routine.
                                ! The file from which the coordinate densities are read."

! === module MOM_EOS ===
EQN_OF_STATE = "WRIGHT"         ! default = "WRIGHT"
                                ! EQN_OF_STATE determines which ocean equation of state should be used.
                                ! Currently, the valid choices are "LINEAR", "UNESCO", "WRIGHT", "NEMO" and
                                ! "TEOS10". This is only used if USE_EOS is true.

DTFREEZE_DP = -7.75e-08
                                ! "[deg C Pa-1] default = 0.0
                                ! When TFREEZE_FORM=LINEAR,
                                ! this is the derivative of the freezing potential
                                ! temperature with pressure."

! === module MOM_surface_forcing ===
RESTORE_SALINITY = True
                                ! "[Boolean] default = False
                                ! If true, the coupled driver will add a globally-balanced
                                ! fresh-water flux that drives sea-surface salinity
                                ! toward specified values."

SALT_RESTORE_FILE = salt_sfc_restore.nc
                                ! "default = salt_restore.nc
                                ! A file in which to find the surface salinity to use for restoring."

FLUXCONST = 0.11
                                ! "[m day-1]
                                ! The constant that relates the restoring surface fluxes
                                ! to the relative surface anomalies (akin to a piston
                                ! velocity).  Note the non-MKS units."

SRESTORE_AS_SFLUX = True
                                ! "[Boolean] default = False
                                ! If true, the restoring of salinity is applied as a salt
                                ! flux instead of as a freshwater flux."

MASK_SRESTORE_UNDER_ICE = False
                                ! "[Boolean] default = False
                                ! If true, disables SSS restoring under sea-ice based on a frazil
                                ! criteria (SST<=Tf). Only used when RESTORE_SALINITY is True."

ADJUST_NET_SRESTORE_TO_ZERO = True
                                ! "[Boolean] default = RESTORE_SALINITY
                                ! If true, adjusts the salinity restoring seen to zero
                                ! whether restoring is via a salt flux or virtual precip."

ADJUST_NET_FRESH_WATER_TO_ZERO = True
                                ! "[Boolean] default = False
                                ! If true, adjusts the net fresh-water forcing seen
                                ! by the ocean (including restoring) to zero."

GUST_CONST = 0.02
                                ! "[Pa] default = 0.02
                                !  The background gustiness in the winds."

FIX_USTAR_GUSTLESS_BUG = True
                                ! "[Boolean] default = False
                                ! If true correct a bug in the time-averaging of the gustless wind
                                ! friction velocity."

! === module MOM_debugging ===
DEBUG = False
                                ! "If true, write out verbose debugging data."

! === module MOM_ALE ===
REGRIDDING_COORDINATE_MODE = ZSTAR
                                ! "default = 'LAYER'
                                ! Coordinate mode for vertical regridding.
                                ! Choose among the following possibilities:
                                ! LAYER - Isopycnal or stacked shallow water layers
                                ! ZSTAR, Z* - stetched geopotential z*
                                ! SIGMA_SHELF_ZSTAR - stetched geopotential z* ignoring shelf
                                ! SIGMA - terrain following coordinates
                                ! RHO   - continuous isopycnal
                                ! HYCOM1 - HyCOM-like hybrid coordinate
                                ! SLIGHT - stretched coordinates above continuous isopycnal
                                ! ADAPTIVE - optimize for smooth neutral density surfaces"

REMAP_UV_USING_OLD_ALG = False
                                ! "[Boolean] default = True
                                ! If true, uses the old remapping-via-a-delta-z method for remapping u and v. If
                                ! false, uses the new method that remaps between grids described by an old and
                                ! new thickness."

REMAPPING_SCHEME = PPM_H4
                                ! "default = 'PLM'
                                ! This sets the reconstruction scheme used
                                ! for vertical remapping for all variables.
                                ! It can be one of the following schemes:
                                ! PCM         (1st-order accurate)
                                ! PLM         (2nd-order accurate)
                                ! PPM_H4      (3rd-order accurate)
                                ! PPM_IH4     (3rd-order accurate)
                                ! PQM_IH4IH3  (4th-order accurate)
                                ! PQM_IH6IH5  (5th-order accurate)"

! === module MOM_regridding ===
ALE_COORDINATE_CONFIG = "FILE:ocean_vgrid.nc,interfaces=zeta"
                                ! "default = 'UNIFORM'
                                ! Determines how to specify the coordinate
                                ! resolution. Valid options are:
                                ! PARAM       - use the vector-parameter ALE_RESOLUTION
                                ! UNIFORM[:N] - uniformly distributed
                                ! FILE:string - read from a file. The string specifies
                                ! the filename and variable name, separated
                                ! by a comma or space, e.g. FILE:lev.nc,dz
                                ! or FILE:lev.nc,interfaces=zw
                                ! WOA09[:N]   - the WOA09 vertical grid (approximately)
                                ! FNC1:string - FNC1:dz_min,H_total,power,precision
                                ! HYBRID:string - read from a file. The string specifies
                                ! the filename and two variable names, separated
                                ! by a comma or space, for sigma-2 and dz. e.g.
                                ! HYBRID:vgrid.nc,sigma2,dz"

! === module MOM_diabatic_driver ===
USE_LEGACY_DIABATIC_DRIVER = False
                                ! "[Boolean] default = True
                                ! If true, use the a legacy version of the diabatic subroutine.
                                ! This is temporary and is needed avoid change in answers."

! === module MOM_ocean_model_nuopc ===
OCEAN_SURFACE_STAGGER = A
                                ! "default = 'C'
                                ! A case-insensitive character string to indicate the
                                ! staggering of the surface velocity field that is
                                ! returned to the coupler.  Valid values include
                                ! 'A', 'B', or 'C'."

RESTART_CONTROL = 3
                                ! "default = 1
                                ! An integer whose bits encode which restart files are
                                ! written. Add 2 (bit 1) for a time-stamped file, and odd
                                ! (bit 0) for a non-time-stamped file. A non-time-stamped
                                ! restart file is saved at the end of the run segment
                                ! for any non-negative value."

EPS_OMESH = 1e-13
                                ! "default = 0.0001
                                ! An float which sets the allowable error (in degrees) between
                                ! grid angle defined in the ESMF mesh file used by CMEPS
                                ! and the ocean_hgrid file used by mom

! === module MOM_tracer_flow_control ===
USE_IDEAL_AGE_TRACER = True
                                ! "[Boolean] default = False
                                ! If true, use the ideal_age_example tracer package."

USE_CFC_CAP = False
                                ! "[Boolean] default = False
                                ! If true, use the MOM_CFC_cap tracer package."

CFC_BC_FILE = cfc_atm_20230310.nc
                                ! "The file in which the CFC-11 and CFC-12 atm concentrations can be found (units
                                ! must be parts per trillion)."

! === module MOM_lateral_mixing_coeffs ===
USE_VARIABLE_MIXING = True
                                ! "[Boolean] default = False
                                ! If true, the variable mixing code will be called.  This
                                ! allows diagnostics to be created even if the scheme is
                                ! not used.  If KHTR_SLOPE_CFF>0 or  KhTh_Slope_Cff>0,
                                ! this is set to true regardless of what is in the
                                ! parameter file."

RESOLN_SCALED_KH = True
                                ! "[Boolean] default = False
                                ! If true, the Laplacian lateral viscosity is scaled away
                                ! when the first baroclinic deformation radius is well
                                ! resolved."

KHTH_SLOPE_CFF = 0.01
                                ! "[nondim] default = 0.0
                                ! The nondimensional coefficient in the Visbeck formula for the interface depth
                                ! diffusivity"

DEPTH_SCALED_KHTH = False
                                ! "[Boolean] default = False
                                !  If true,  KHTH is scaled away when the depth is shallower
                                !  than a reference depth: KHTH = MIN(1,H/H0)**N * KHTH,
                                !  where H0 is a reference depth, controlled via
                                !  DEPTH_SCALED_KHTH_H0, and theexponent (N) is
                                !  controlled via DEPTH_SCALED_KHTH_EXP."

KHTH_USE_EBT_STRUCT = True
                                ! "[Boolean] default = False
                                ! If true, uses the equivalent barotropic structure
                                ! as the vertical structure of thickness diffusivity."

RESOLN_SCALED_KHTH = True
                                ! "[Boolean] default = False
                                ! If true, the interface depth diffusivity is scaled away
                                ! when the first baroclinic deformation radius is well
                                ! resolved."

USE_STORED_SLOPES = True
                                ! "[Boolean] default = False
                                ! If true, the isopycnal slopes are calculated once and
                                ! stored for re-use. This uses more memory but avoids calling
                                ! the equation of state more times than should be necessary."

INTERPOLATE_RES_FN = False
                                ! "[Boolean] default = True
                                ! If true, interpolate the resolution function to the
                                ! velocity points from the thickness points; otherwise
                                ! interpolate the wave speed and calculate the resolution
                                ! function independently at each point."

GILL_EQUATORIAL_LD = True
                                ! "[Boolean] default = False
                                ! If true, uses Gill's definition of the baroclinic
                                ! equatorial deformation radius, otherwise, if false, use
                                ! Pedlosky's definition. These definitions differ by a factor
                                ! of 2 infront of the beta term in the denominator. Gill'sis the more appropriate definition."

KH_RES_SCALE_COEF = 0.4
                                ! "[nondim] default = 1.0
                                ! A coefficient that determines how KhTh is scaled away if RESOLN_SCALED_... is
                                ! true, as F = 1 / (1 + (KH_RES_SCALE_COEF*Rd/dx)^KH_RES_FN_POWER)."

VISC_RES_SCALE_COEF = 0.4
                                ! "[nondim] default = 1.0
                                ! A coefficient that determines how Kh is scaled away if RESOLN_SCALED_... is
                                ! true, as F = 1 / (1 + (KH_RES_SCALE_COEF*Rd/dx)^KH_RES_FN_POWER). This
                                ! function affects lateral viscosity, Kh, and not KhTh."

! === module MOM_thickness_diffuse ===
USE_GM_WORK_BUG = False
                                ! "[Boolean] default = True
                                ! If true, compute the top-layer work tendency on the u-grid with the incorrect
                                ! sign, for legacy reproducibility."

KHTH = 0.0
                                ! "[m2 s-1] default = 0.0
                                ! The background horizontal thickness diffusivity."

KHTH_MAX = 0.0
                                ! "[m2 s-1] default = 0.0
                                ! The maximum horizontal thickness diffusivity."

USE_KH_IN_MEKE = True
                                ! "[Boolean] default = False
                                ! If true, uses the thickness diffusivity calculated here to diffuse MEKE."

KHTH_USE_FGNV_STREAMFUNCTION = True
                                ! "[Boolean] default = False
                                ! If true, use the streamfunction formulation of
                                ! Ferrari et al., 2010, which effectively emphasizes
                                ! graver vertical modes by smoothing in the vertical."

FGNV_C_MIN = 0.01
                                ! "[m s-1] default = 0.0
                                ! A minium wave speed used in the Ferrari et al., 2010,
                                ! streamfunction formulation."

! === module MOM_continuity_PPM ===
ETA_TOLERANCE = 1e-06
                                ! "[m] default = 3.15E-09
                                ! The tolerance for the differences between the
                                ! barotropic and baroclinic estimates of the sea surface
                                ! height due to the fluxes through each face.  The total
                                ! tolerance for SSH is 4 times this value.  The default
                                ! is 0.5*NK*ANGSTROM, and this should not be set less x