! This file was written by the model and records the non-default parameters used at run-time.

! === module MOM ===
USE_REGRIDDING = True           !   [Boolean] default = False
                                ! If True, use the ALE algorithm (regridding/remapping). If False, use the
                                ! layered isopycnal algorithm.
DT = 150.0                      !   [s]
                                ! The (baroclinic) dynamics time step.  The time-step that is actually used will
                                ! be an integer fraction of the forcing time-step (DT_FORCING in ocean-only mode
                                ! or the coupling timestep in coupled mode.)
THERMO_SPANS_COUPLING = True    !   [Boolean] default = False
                                ! If true, the MOM will take thermodynamic timesteps that can be longer than the
                                ! coupling timestep. The actual thermodynamic timestep that is used in this case
                                ! is the largest integer multiple of the coupling timestep that is less than or
                                ! equal to DT_THERM.
HFREEZE = 10.0                  !   [m] default = -1.0
                                ! If HFREEZE > 0, melt potential will be computed. The actual depth over which
                                ! melt potential is computed will be min(HFREEZE, OBLD), where OBLD is the
                                ! boundary layer depth. If HFREEZE <= 0 (default), melt potential will not be
                                ! computed.
DTBT_RESET_PERIOD = 0.0         !   [s] default = 150.0
                                ! The period between recalculations of DTBT (if DTBT <= 0). If DTBT_RESET_PERIOD
                                ! is negative, DTBT is set based only on information available at
                                ! initialization.  If 0, DTBT will be set every dynamics time step. The default
                                ! is set by DT_THERM.  This is only used if SPLIT is true.
FRAZIL = True                   !   [Boolean] default = False
                                ! If true, water freezes if it gets too cold, and the accumulated heat deficit
                                ! is returned in the surface state.  FRAZIL is only used if
                                ! ENABLE_THERMODYNAMICS is true.
BOUND_SALINITY = True           !   [Boolean] default = False
                                ! If true, limit salinity to being positive. (The sea-ice model may ask for more
                                ! salt than is available and drive the salinity negative otherwise.)
C_P = 3992.0                    !   [J kg-1 K-1] default = 3991.86795711963
                                ! The heat capacity of sea water, approximated as a constant. This is only used
                                ! if ENABLE_THERMODYNAMICS is true. The default value is from the TEOS-10
                                ! definition of conservative temperature.
USE_PSURF_IN_EOS = False        !   [Boolean] default = True
                                ! If true, always include the surface pressure contributions in equation of
                                ! state calculations.
SAVE_INITIAL_CONDS = True       !   [Boolean] default = False
                                ! If true, write the initial conditions to a file given by IC_OUTPUT_FILE.

! === module MOM_domains ===
NIGLOBAL = 4320                 !
                                ! The total number of thickness grid points in the x-direction in the physical
                                ! domain. With STATIC_MEMORY_ this is set in MOM_memory.h at compile time.
NJGLOBAL = 1442                 !
                                ! The total number of thickness grid points in the y-direction in the physical
                                ! domain. With STATIC_MEMORY_ this is set in MOM_memory.h at compile time.

! === module MOM_fixed_initialization ===
INPUTDIR = "./INPUT/"           ! default = "."
                                ! The directory in which input files are found.

! === module MOM_grid_init ===
GRID_CONFIG = "mosaic"          !
                                ! A character string that determines the method for defining the horizontal
                                ! grid.  Current options are:
                                !     mosaic - read the grid from a mosaic (supergrid)
                                !              file set by GRID_FILE.
                                !     cartesian - use a (flat) Cartesian grid.
                                !     spherical - use a simple spherical grid.
                                !     mercator - use a Mercator spherical grid.
GRID_FILE = "ocean_hgrid_cropped.nc" !
                                ! Name of the file from which to read horizontal grid data.
RAD_EARTH = 6.371229E+06        !   [m] default = 6.378E+06
                                ! The radius of the Earth.
TOPO_CONFIG = "file"            !
                                ! This specifies how bathymetry is specified:
                                !     file - read bathymetric information from the file
                                !       specified by (TOPO_FILE).
                                !     flat - flat bottom set to MAXIMUM_DEPTH.
                                !     bowl - an analytically specified bowl-shaped basin
                                !       ranging between MAXIMUM_DEPTH and MINIMUM_DEPTH.
                                !     spoon - a similar shape to 'bowl', but with an vertical
                                !       wall at the southern face.
                                !     halfpipe - a zonally uniform channel with a half-sine
                                !       profile in the meridional direction.
                                !     bbuilder - build topography from list of functions.
                                !     benchmark - use the benchmark test case topography.
                                !     Neverworld - use the Neverworld test case topography.
                                !     DOME - use a slope and channel configuration for the
                                !       DOME sill-overflow test case.
                                !     ISOMIP - use a slope and channel configuration for the
                                !       ISOMIP test case.
                                !     DOME2D - use a shelf and slope configuration for the
                                !       DOME2D gravity current/overflow test case.
                                !     Kelvin - flat but with rotated land mask.
                                !     seamount - Gaussian bump for spontaneous motion test case.
                                !     dumbbell - Sloshing channel with reservoirs on both ends.
                                !     shelfwave - exponential slope for shelfwave test case.
                                !     Phillips - ACC-like idealized topography used in the Phillips config.
                                !     dense - Denmark Strait-like dense water formation and overflow.
                                !     USER - call a user modified routine.
TOPO_FILE = "topog_Charrassin_open_cavity_noGL5m_new150925.nc" ! default = "topog.nc"
                                ! The file from which the bathymetry is read.
MAXIMUM_DEPTH = 6000.0          !   [m]
                                ! The maximum depth of the ocean.

! === module MOM_open_boundary ===
! Controls where open boundaries are located, what kind of boundary condition to impose, and what data to apply,
! if any.
OBC_NUMBER_OF_SEGMENTS = 1      ! default = 0
                                ! The number of open boundary segments.
OBC_ZERO_BIHARMONIC = True      !   [Boolean] default = False
                                ! If true, zeros the Laplacian of flow on open boundaries in the biharmonic
                                ! viscosity term.
OBC_SEGMENT_001 = "J=N,I=N:0,FLATHER,ORLANSKI,NUDGED" !
                                ! Documentation needs to be dynamic?????
OBC_SEGMENT_001_VELOCITY_NUDGING_TIMESCALES = 0.3, 360.0 !   [days]
                                ! Timescales in days for nudging along a segment, for inflow, then outflow.
                                ! Setting both to zero should behave like SIMPLE obcs for the baroclinic
                                ! velocities.
OBC_TRACER_RESERVOIR_LENGTH_SCALE_OUT = 3.0E+04 !   [m] default = 0.0
                                ! An effective length scale for restoring the tracer concentration at the
                                ! boundaries to externally imposed values when the flow is exiting the domain.
OBC_TRACER_RESERVOIR_LENGTH_SCALE_IN = 3000.0 !   [m] default = 0.0
                                ! An effective length scale for restoring the tracer concentration at the
                                ! boundaries to values from the interior when the flow is entering the domain.
BRUSHCUTTER_MODE = True         !   [Boolean] default = False
                                ! If true, read external OBC data on the supergrid.

! === module MOM_verticalGrid ===
! Parameters providing information about the vertical grid.
ANGSTROM = 1.0E-15              !   [m] default = 1.0E-10
                                ! The minimum layer thickness, usually one-Angstrom.
NK = 75                         !   [nondim]
                                ! The number of model layers.

! === module MOM_EOS ===
EQN_OF_STATE = "WRIGHT_FULL"    ! default = "WRIGHT"
                                ! EQN_OF_STATE determines which ocean equation of state should be used.
                                ! Currently, the valid choices are "LINEAR", "UNESCO", "JACKETT_MCD", "WRIGHT",
                                ! "WRIGHT_REDUCED", "WRIGHT_FULL", "NEMO", "ROQUET_RHO", "ROQUET_SPV" and
                                ! "TEOS10".  This is only used if USE_EOS is true.
DTFREEZE_DP = -7.75E-08         !   [degC Pa-1] default = 0.0
                                ! When TFREEZE_FORM=LINEAR, this is the derivative of the freezing potential
                                ! temperature with pressure.

! === module MOM_restart ===
PARALLEL_RESTARTFILES = True    !   [Boolean] default = False
                                ! If true, the IO layout is used to group processors that write to the same
                                ! restart file or each processor writes its own (numbered) restart file. If
                                ! false, a single restart file is generated combining output from all PEs.

! === module MOM_tracer_flow_control ===
USE_IDEAL_AGE_TRACER = True     !   [Boolean] default = False
                                ! If true, use the ideal_age_example tracer package.

! === module ideal_age_example ===

! === module MOM_boundary_update ===

! === module MOM_fixed_initialization ===

! === module MOM_grid_init ===

! === module MOM_open_boundary ===
! Controls where open boundaries are located, what kind of boundary condition to impose, and what data to apply,
! if any.

! === module MOM_coord_initialization ===
REGRIDDING_COORDINATE_MODE = "SIGMA_SHELF_ZSTAR" ! default = "LAYER"
                                ! Coordinate mode for vertical regridding. Choose among the following
                                ! possibilities:  LAYER - Isopycnal or stacked shallow water layers
                                !  ZSTAR, Z* - stretched geopotential z*
                                !  SIGMA_SHELF_ZSTAR - stretched geopotential z* ignoring shelf
                                !  SIGMA - terrain following coordinates
                                !  RHO   - continuous isopycnal
                                !  HYCOM1 - HyCOM-like hybrid coordinate
                                !  HYBGEN - Hybrid coordinate from the Hycom hybgen code
                                !  ADAPTIVE - optimize for smooth neutral density surfaces
ALE_COORDINATE_CONFIG = "FILE:ocean_vgrid_cropped.nc,interfaces=zeta" ! default = "UNIFORM"
                                ! Determines how to specify the coordinate resolution. Valid options are:
                                !  PARAM       - use the vector-parameter ALE_RESOLUTION
                                !  UNIFORM[:N] - uniformly distributed
                                !  FILE:string - read from a file. The string specifies
                                !                the filename and variable name, separated
                                !                by a comma or space, e.g. FILE:lev.nc,dz
                                !                or FILE:lev.nc,interfaces=zw
                                !  WOA09[:N]   - the WOA09 vertical grid (approximately)
                                !  WOA09INT[:N] - layers spanned by the WOA09 depths
                                !  WOA23INT[:N] - layers spanned by the WOA23 depths
                                !  FNC1:string - FNC1:dz_min,H_total,power,precision
                                !  HYBRID:string - read from a file. The string specifies
                                !                the filename and two variable names, separated
                                !                by a comma or space, for sigma-2 and dz. e.g.
                                !                HYBRID:vgrid.nc,sigma2,dz
!ALE_RESOLUTION = 1.0825614929199219, 1.1963462829589844, 1.322089672088623, 1.4610481262207031, 1.614609718322754, 1.784308910369873, 1.9718408584594727, 2.1790781021118164, 2.4080896377563477, 2.661160469055176, 2.940814971923828, 3.249845504760742, 3.591329574584961, 3.968667984008789, 4.385614395141602, 4.846321105957031, 5.355350494384766, 5.917766571044922, 6.539115905761719, 7.225547790527344, 7.983818054199219, 8.821372985839844, 9.746376037597656, 10.767845153808594, 11.895652770996094, 13.140586853027344, 14.514511108398438, 16.030319213867188, 17.7020263671875, 19.544876098632812, 21.575271606445312, 23.810821533203125, 26.270294189453125, 28.973419189453125, 31.94091796875, 35.194000244140625, 38.75390625, 42.641632080078125, 46.876739501953125, 51.476593017578125, 56.45489501953125, 61.82025146484375, 67.5743408203125, 73.70965576171875, 80.207763671875, 87.03759765625, 94.1534423828125, 101.4951171875, 108.9879150390625, 116.5452880859375, 124.0714111328125, 131.4671630859375, 138.6346435546875, 145.484130859375, 151.938232421875, 157.93701171875, 163.439697265625, 168.42431640625, 172.8876953125, 176.842041015625, 180.3125, 183.33154296875, 185.938720703125, 188.175048828125, 190.08251953125, 191.701171875
MIN_THICKNESS = 1.0E-12         !   [m] default = 0.001
                                ! When regridding, this is the minimum layer thickness allowed.
REMAPPING_SCHEME = "PPM_H4"     ! default = "PLM"
                                ! This sets the reconstruction scheme used for vertical remapping for all
                                ! variables. It can be one of the following schemes:
                                ! PCM         (1st-order accurate)
                                ! PLM         (2nd-order accurate)
                                ! PLM_HYBGEN  (2nd-order accurate)
                                ! PPM_H4      (3rd-order accurate)
                                ! PPM_IH4     (3rd-order accurate)
                                ! PPM_HYBGEN  (3rd-order accurate)
                                ! WENO_HYBGEN (3rd-order accurate)
                                ! PQM_IH4IH3  (4th-order accurate)
                                ! PQM_IH6IH5  (5th-order accurate)
INIT_BOUNDARY_EXTRAP = True     !   [Boolean] default = False
                                ! If true, values at the interfaces of boundary cells are extrapolated instead
                                ! of piecewise constant during initialization.Defaults to REMAP_BOUNDARY_EXTRAP.
REMAPPING_USE_OM4_SUBCELLS = False !   [Boolean] default = True
                                ! This selects the remapping algorithm used in OM4 that does not use the full
                                ! reconstruction for the top- and lower-most sub-layers, but instead assumes
                                ! they are always vanished (untrue) and so just uses their edge values. We
                                ! recommend setting this option to false.

! === module MOM_state_initialization ===
INIT_LAYERS_FROM_Z_FILE = True  !   [Boolean] default = False
                                ! If true, initialize the layer thicknesses, temperatures, and salinities from a
                                ! Z-space file on a latitude-longitude grid.

! === module MOM_initialize_layers_from_Z ===
TEMP_SALT_Z_INIT_FILE = "ACCESS-OM2_IC_bfilled_smoothedland_am_wed_adjust.nc" ! default = "temp_salt_z.nc"
                                ! The name of the z-space input file used to initialize temperatures (T) and
                                ! salinities (S). If T and S are not in the same file, TEMP_Z_INIT_FILE and
                                ! SALT_Z_INIT_FILE must be set.
Z_INIT_FILE_PTEMP_VAR = "temp"  ! default = "ptemp"
                                ! The name of the potential temperature variable in TEMP_Z_INIT_FILE.
Z_INIT_ALE_REMAPPING = True     !   [Boolean] default = False
                                ! If True, then remap straight to model coordinate from file.
Z_INIT_REMAP_GENERAL = True     !   [Boolean] default = False
                                ! If false, only initializes to z* coordinates. If true, allows initialization
                                ! directly to general coordinates.
TEMP_SALT_INIT_VERTICAL_REMAP_ONLY = True !   [Boolean] default = False
                                ! If true, initial conditions are on the model horizontal grid. Extrapolation
                                ! over missing ocean values is done using an ICE-9 procedure with vertical ALE
                                ! remapping .
TRIM_IC_FOR_P_SURF = True       !   [Boolean] default = False
                                ! If true, cuts way the top of the column for initial conditions at the depth
                                ! where the hydrostatic pressure matches the imposed surface pressure which is
                                ! read from file.
SURFACE_PRESSURE_FILE = "ice_thickness_Charrassin_regridded_cropped_add_area_where_iceelev_noGL5m_ADDHMASKFILLTHICK_150925.nc" !
                                ! The initial condition file for the surface pressure exerted by ice.
SURFACE_PRESSURE_VAR = "thick"  ! default = ""
                                ! The initial condition variable for the surface pressure exerted by ice.
SURFACE_PRESSURE_SCALE = 8986.6 !   [file dependent] default = 1.0
                                ! A scaling factor to convert SURFACE_PRESSURE_VAR from file
                                ! SURFACE_PRESSURE_FILE into a surface pressure.
TRIM_IC_Z_TOLERANCE = 1.0E-10   !   [m] default = 1.0E-05
                                ! The tolerance with which to find the depth matching the specified surface
                                ! pressure with TRIM_IC_FOR_P_SURF.
FRAC_DP_AT_POS_NEGATIVE_P_BUGFIX = True !   [Boolean] default = False
                                ! If true, use bugfix in ice shelf TRIM_IC initialization. Otherwise, pressure
                                ! input to density EOS is negative.
TRIMMING_USES_REMAPPING = True  !   [Boolean] default = False
                                ! When trimming the column, also remap T and S.
OBC_SEGMENT_001_DATA = "U=file:forcing_access_yr2_8km_fill.nc(u),V=file:forcing_access_yr2_8km_fill.nc(v),SSH=file:forcing_access_yr2_8km_fill.nc(eta_t),TEMP=file:forcing_access_yr2_8km_fill.nc(pot_temp),SALT=file:forcing_access_yr2_8km_fill.nc(salt)" !
                                ! OBC segment docs

! === module MOM_diag_mediator ===
NUM_DIAG_COORDS = 2             ! default = 1
                                ! The number of diagnostic vertical coordinates to use. For each coordinate, an
                                ! entry in DIAG_COORDS must be provided.
DIAG_COORDS = "z Z ZSTAR", "rho2 RHO2 RHO" !
                                ! A list of string tuples associating diag_table modules to a coordinate
                                ! definition used for diagnostics. Each string is of the form
                                ! "MODULE_SUFFIX,PARAMETER_SUFFIX,COORDINATE_NAME".
DIAG_COORD_DEF_Z = "FILE:ocean_vgrid_cropped.nc,interfaces=zeta" ! default = "WOA09"
                                ! Determines how to specify the coordinate resolution. Valid options are:
                                !  PARAM       - use the vector-parameter DIAG_COORD_RES_Z
                                !  UNIFORM[:N] - uniformly distributed
                                !  FILE:string - read from a file. The string specifies
                                !                the filename and variable name, separated
                                !                by a comma or space, e.g. FILE:lev.nc,dz
                                !                or FILE:lev.nc,interfaces=zw
                                !  WOA09[:N]   - the WOA09 vertical grid (approximately)
                                !  WOA09INT[:N] - layers spanned by the WOA09 depths
                                !  WOA23INT[:N] - layers spanned by the WOA23 depths
                                !  FNC1:string - FNC1:dz_min,H_total,power,precision
                                !  HYBRID:string - read from a file. The string specifies
                                !                the filename and two variable names, separated
                                !                by a comma or space, for sigma-2 and dz. e.g.
                                !                HYBRID:vgrid.nc,sigma2,dz
REGRIDDING_ANSWER_DATE = 99991231 ! default = 20181231
                                ! The vintage of the expressions and order of arithmetic to use for regridding.
                                ! Values below 20190101 result in the use of older, less accurate expressions
                                ! that were in use at the end of 2018.  Higher values result in the use of more
                                ! robust and accurate forms of mathematically equivalent expressions.
DIAG_COORD_DEF_RHO2 = "FILE:diag_rho2.nc,interfaces=rho2" ! default = "WOA09"
                                ! Determines how to specify the coordinate resolution. Valid options are:
                                !  PARAM       - use the vector-parameter DIAG_COORD_RES_RHO2
                                !  UNIFORM[:N] - uniformly distributed
                                !  FILE:string - read from a file. The string specifies
                                !                the filename and variable name, separated
                                !                by a comma or space, e.g. FILE:lev.nc,dz
                                !                or FILE:lev.nc,interfaces=zw
                                !  WOA09[:N]   - the WOA09 vertical grid (approximately)
                                !  WOA09INT[:N] - layers spanned by the WOA09 depths
                                !  WOA23INT[:N] - layers spanned by the WOA23 depths
                                !  FNC1:string - FNC1:dz_min,H_total,power,precision
                                !  HYBRID:string - read from a file. The string specifies
                                !                the filename and two variable names, separated
                                !                by a comma or space, for sigma-2 and dz. e.g.
                                !                HYBRID:vgrid.nc,sigma2,dz

! === module MOM_lateral_mixing_coeffs ===
KHTR_SLOPE_CFF = 0.25           !   [nondim] default = 0.0
                                ! The nondimensional coefficient in the Visbeck formula for the epipycnal tracer
                                ! diffusivity

! === module MOM_set_visc ===
CHANNEL_DRAG = True             !   [Boolean] default = False
                                ! If true, the bottom drag is exerted directly on each layer proportional to the
                                ! fraction of the bottom it overlies.
LINEAR_DRAG = True              !   [Boolean] default = False
                                ! If LINEAR_DRAG and BOTTOMDRAGLAW are defined the drag law is
                                ! cdrag*DRAG_BG_VEL*u.
HBBL = 10.0                     !   [m]
                                ! The thickness of a bottom boundary layer with a viscosity increased by
                                ! KV_EXTRA_BBL if BOTTOMDRAGLAW is not defined, or the thickness over which
                                ! near-bottom velocities are averaged for the drag law if BOTTOMDRAGLAW is
                                ! defined but LINEAR_DRAG is not.
DRAG_BG_VEL = 0.05              !   [m s-1] default = 0.0
                                ! DRAG_BG_VEL is either the assumed bottom velocity (with LINEAR_DRAG) or an
                                ! unresolved  velocity that is combined with the resolved velocity to estimate
                                ! the velocity magnitude.  DRAG_BG_VEL is only used when BOTTOMDRAGLAW is
                                ! defined.
BBL_THICK_MIN = 0.1             !   [m] default = 0.0
                                ! The minimum bottom boundary layer thickness that can be used with
                                ! BOTTOMDRAGLAW. This might be Kv/(cdrag*drag_bg_vel) to give Kv as the minimum
                                ! near-bottom viscosity.
KV = 1.0E-06                    !   [m2 s-1]
                                ! The background kinematic viscosity in the interior. The molecular value, ~1e-6
                                ! m2 s-1, may be used.

! === module MOM_thickness_diffuse ===
KHTH_MAX_CFL = 0.1              !   [nondimensional] default = 0.8
                                ! The maximum value of the local diffusive CFL ratio that is permitted for the
                                ! thickness diffusivity. 1.0 is the marginally unstable value in a pure layered
                                ! model, but much smaller numbers (e.g. 0.1) seem to work better for ALE-based
                                ! models.

! === module MOM_dynamics_split_RK2 ===
VISC_REM_BUG = False            !   [Boolean] default = True
                                ! If true, visc_rem_[uv] in split mode is incorrectly calculated or accounted
                                ! for in two places. This parameter controls the defaults of two individual
                                ! flags, VISC_REM_TIMESTEP_BUG in MOM_dynamics_split_RK2(b) and
                                ! VISC_REM_BT_WEIGHT_BUG in MOM_barotropic.

! === module MOM_continuity_PPM ===
ETA_TOLERANCE = 1.0E-06         !   [m] default = 3.75E-14
                                ! The tolerance for the differences between the barotropic and baroclinic
                                ! estimates of the sea surface height due to the fluxes through each face.  The
                                ! total tolerance for SSH is 4 times this value.  The default is
                                ! 0.5*NK*ANGSTROM, and this should not be set less than about
                                ! 10^-15*MAXIMUM_DEPTH.

! === module MOM_CoriolisAdv ===
BOUND_CORIOLIS = True           !   [Boolean] default = False
                                ! If true, the Coriolis terms at u-points are bounded by the four estimates of
                                ! (f+rv)v from the four neighboring v-points, and similarly at v-points.  This
                                ! option would have no effect on the SADOURNY Coriolis scheme if it were
                                ! possible to use centered difference thickness fluxes.

! === module MOM_PressureForce ===

! === module MOM_PressureForce_FV ===
MASS_WEIGHT_IN_PRESSURE_GRADIENT = True !   [Boolean] default = False
                                ! If true, use mass weighting when interpolating T/S for integrals near the
                                ! bathymetry in FV pressure gradient calculations.
MASS_WEIGHT_IN_PRESSURE_GRADIENT_TOP = True !   [Boolean] default = False
                                ! If true and MASS_WEIGHT_IN_PRESSURE_GRADIENT is true, use mass weighting when
                                ! interpolating T/S for integrals near the top of the water column in FV
                                ! pressure gradient calculations.
MASS_WEIGHT_IN_PGF_VANISHED_ONLY = True !   [Boolean] default = False
                                ! If true, use mass weighting when interpolating T/S for integrals only if one
                                ! side is vanished according to RESET_INTXPA_H_NONVANISHED.
RESET_INTXPA_INTEGRAL = True    !   [Boolean] default = False
                                ! If true, reset INTXPA to match pressures at first nonvanished cell. Includes
                                ! pressure correction.
RESET_INTXPA_INTEGRAL_FLATTEST = True !   [Boolean] default = False
                                ! If true, use flattest interface as reference interface where there is no
                                ! better choice for RESET_INTXPA_INTEGRAL. Otherwise, use surface interface.
PRESSURE_RECONSTRUCTION_SCHEME = 2 ! default = 1
                                ! Order of vertical reconstruction of T/S to use in the integrals within the FV
                                ! pressure gradient calculation.
                                !  0: PCM or no reconstruction.
                                !  1: PLM reconstruction.
                                !  2: PPM reconstruction.

! === module MOM_Zanna_Bolton ===

! === module MOM_hor_visc ===