! This file was written by the model and records the non-default parameters used at run-time.

! === module MOM ===
DIABATIC_FIRST = True           !   [Boolean] default = False
                                ! If true, apply diabatic and thermodynamic processes, including buoyancy
                                ! forcing and mass gain or loss, before stepping the dynamics forward.
USE_REGRIDDING = True           !   [Boolean] default = False
                                ! If True, use the ALE algorithm (regridding/remapping). If False, use the
                                ! layered isopycnal algorithm.
THICKNESSDIFFUSE = True         !   [Boolean] default = False
                                ! If true, isopycnal surfaces are diffused with a Laplacian coefficient of KHTH.
THICKNESSDIFFUSE_FIRST = True   !   [Boolean] default = False
                                ! If true, do thickness diffusion or interface height smoothing before dynamics.
                                ! This is only used if THICKNESSDIFFUSE or APPLY_INTERFACE_FILTER is true.
DT = 1350.0                     !   [s]
                                ! The (baroclinic) dynamics time step.  The time-step that is actually used will
                                ! be an integer fraction of the forcing time-step (DT_FORCING in ocean-only mode
                                ! or the coupling timestep in coupled mode.)
HFREEZE = 10.0                  !   [m] default = -1.0
                                ! If HFREEZE > 0, melt potential will be computed. The actual depth over which
                                ! melt potential is computed will be min(HFREEZE, OBLD), where OBLD is the
                                ! boundary layer depth. If HFREEZE <= 0 (default), melt potential will not be
                                ! computed.
DTBT_RESET_PERIOD = 0.0         !   [s] default = 1350.0
                                ! The period between recalculations of DTBT (if DTBT <= 0). If DTBT_RESET_PERIOD
                                ! is negative, DTBT is set based only on information available at
                                ! initialization.  If 0, DTBT will be set every dynamics time step. The default
                                ! is set by DT_THERM.  This is only used if SPLIT is true.
FRAZIL = True                   !   [Boolean] default = False
                                ! If true, water freezes if it gets too cold, and the accumulated heat deficit
                                ! is returned in the surface state.  FRAZIL is only used if
                                ! ENABLE_THERMODYNAMICS is true.
BOUND_SALINITY = True           !   [Boolean] default = False
                                ! If true, limit salinity to being positive. (The sea-ice model may ask for more
                                ! salt than is available and drive the salinity negative otherwise.)
C_P = 3992.0                    !   [J kg-1 K-1] default = 3991.86795711963
                                ! The heat capacity of sea water, approximated as a constant. This is only used
                                ! if ENABLE_THERMODYNAMICS is true. The default value is from the TEOS-10
                                ! definition of conservative temperature.
CHECK_BAD_SURFACE_VALS = True   !   [Boolean] default = False
                                ! If true, check the surface state for ridiculous values.
BAD_VAL_SSH_MAX = 50.0          !   [m] default = 20.0
                                ! The value of SSH above which a bad value message is triggered, if
                                ! CHECK_BAD_SURFACE_VALS is true.
BAD_VAL_SSS_MAX = 75.0          !   [PPT] default = 45.0
                                ! The value of SSS above which a bad value message is triggered, if
                                ! CHECK_BAD_SURFACE_VALS is true.
BAD_VAL_SST_MAX = 55.0          !   [deg C] default = 45.0
                                ! The value of SST above which a bad value message is triggered, if
                                ! CHECK_BAD_SURFACE_VALS is true.
BAD_VAL_SST_MIN = -3.0          !   [deg C] default = -2.1
                                ! The value of SST below which a bad value message is triggered, if
                                ! CHECK_BAD_SURFACE_VALS is true.
SAVE_INITIAL_CONDS = True       !   [Boolean] default = False
                                ! If true, write the initial conditions to a file given by IC_OUTPUT_FILE.

! === module MOM_domains ===
TRIPOLAR_N = True               !   [Boolean] default = False
                                ! Use tripolar connectivity at the northern edge of the domain.  With
                                ! TRIPOLAR_N, NIGLOBAL must be even.
NIGLOBAL = 1440                 !
                                ! The total number of thickness grid points in the x-direction in the physical
                                ! domain. With STATIC_MEMORY_ this is set in MOM_memory.h at compile time.
NJGLOBAL = 1080                 !
                                ! The total number of thickness grid points in the y-direction in the physical
                                ! domain. With STATIC_MEMORY_ this is set in MOM_memory.h at compile time.

! === module MOM_fixed_initialization ===
INPUTDIR = "./input/"           ! default = "."
                                ! The directory in which input files are found.

! === module MOM_grid_init ===
GRID_CONFIG = "mosaic"          !
                                ! A character string that determines the method for defining the horizontal
                                ! grid.  Current options are:
                                !     mosaic - read the grid from a mosaic (supergrid)
                                !              file set by GRID_FILE.
                                !     cartesian - use a (flat) Cartesian grid.
                                !     spherical - use a simple spherical grid.
                                !     mercator - use a Mercator spherical grid.
GRID_FILE = "ocean_hgrid.nc"    !
                                ! Name of the file from which to read horizontal grid data.
TOPO_CONFIG = "file"            !
                                ! This specifies how bathymetry is specified:
                                !     file - read bathymetric information from the file
                                !       specified by (TOPO_FILE).
                                !     flat - flat bottom set to MAXIMUM_DEPTH.
                                !     bowl - an analytically specified bowl-shaped basin
                                !       ranging between MAXIMUM_DEPTH and MINIMUM_DEPTH.
                                !     spoon - a similar shape to 'bowl', but with an vertical
                                !       wall at the southern face.
                                !     halfpipe - a zonally uniform channel with a half-sine
                                !       profile in the meridional direction.
                                !     bbuilder - build topography from list of functions.
                                !     benchmark - use the benchmark test case topography.
                                !     Neverworld - use the Neverworld test case topography.
                                !     DOME - use a slope and channel configuration for the
                                !       DOME sill-overflow test case.
                                !     ISOMIP - use a slope and channel configuration for the
                                !       ISOMIP test case.
                                !     DOME2D - use a shelf and slope configuration for the
                                !       DOME2D gravity current/overflow test case.
                                !     Kelvin - flat but with rotated land mask.
                                !     seamount - Gaussian bump for spontaneous motion test case.
                                !     dumbbell - Sloshing channel with reservoirs on both ends.
                                !     shelfwave - exponential slope for shelfwave test case.
                                !     Phillips - ACC-like idealized topography used in the Phillips config.
                                !     dense - Denmark Strait-like dense water formation and overflow.
                                !     USER - call a user modified routine.
MINIMUM_DEPTH = 0.5             !   [m] default = 0.0
                                ! If MASKING_DEPTH is unspecified, then anything shallower than MINIMUM_DEPTH is
                                ! assumed to be land and all fluxes are masked out. If MASKING_DEPTH is
                                ! specified, then all depths shallower than MINIMUM_DEPTH but deeper than
                                ! MASKING_DEPTH are rounded to MINIMUM_DEPTH.
MAXIMUM_DEPTH = 6000.0          !   [m]
                                ! The maximum depth of the ocean.

! === module MOM_verticalGrid ===
! Parameters providing information about the vertical grid.
NK = 50                         !   [nondim]
                                ! The number of model layers.

! === module MOM_EOS ===
DTFREEZE_DP = -7.75E-08         !   [deg C Pa-1] default = 0.0
                                ! When TFREEZE_FORM=LINEAR, this is the derivative of the freezing potential
                                ! temperature with pressure.

! === module MOM_tracer_flow_control ===
USE_IDEAL_AGE_TRACER = True     !   [Boolean] default = False
                                ! If true, use the ideal_age_example tracer package.

! === module ideal_age_example ===

! === module MOM_coord_initialization ===
REGRIDDING_COORDINATE_MODE = "ZSTAR" ! default = "LAYER"
                                ! Coordinate mode for vertical regridding. Choose among the following
                                ! possibilities:  LAYER - Isopycnal or stacked shallow water layers
                                !  ZSTAR, Z* - stretched geopotential z*
                                !  SIGMA_SHELF_ZSTAR - stretched geopotential z* ignoring shelf
                                !  SIGMA - terrain following coordinates
                                !  RHO   - continuous isopycnal
                                !  HYCOM1 - HyCOM-like hybrid coordinate
                                !  HYBGEN - Hybrid coordinate from the Hycom hybgen code
                                !  ADAPTIVE - optimize for smooth neutral density surfaces
ALE_COORDINATE_CONFIG = "FILE:ocean_vgrid.nc,interfaces=zeta" ! default = "UNIFORM"
                                ! Determines how to specify the coordinate resolution. Valid options are:
                                !  PARAM       - use the vector-parameter ALE_RESOLUTION
                                !  UNIFORM[:N] - uniformly distributed
                                !  FILE:string - read from a file. The string specifies
                                !                the filename and variable name, separated
                                !                by a comma or space, e.g. FILE:lev.nc,dz
                                !                or FILE:lev.nc,interfaces=zw
                                !  WOA09[:N]   - the WOA09 vertical grid (approximately)
                                !  FNC1:string - FNC1:dz_min,H_total,power,precision
                                !  HYBRID:string - read from a file. The string specifies
                                !                the filename and two variable names, separated
                                !                by a comma or space, for sigma-2 and dz. e.g.
                                !                HYBRID:vgrid.nc,sigma2,dz
!ALE_RESOLUTION = 2.303499698638916, 2.6903486251831055, 3.1421399116516113, 3.6697616577148438, 4.285917282104492, 5.005424499511719, 5.845563888549805, 6.826459884643555, 7.971549987792969, 9.308074951171875, 10.867660522460938, 12.686931610107422, 14.808158874511719, 17.279945373535156, 20.157821655273438, 23.504684448242188, 27.390975952148438, 31.894271850585938, 37.097900390625, 43.088226318359375, 49.94970703125, 57.757049560546875, 66.56375122070312, 76.386962890625, 87.18865966796875, 98.85760498046875, 111.1953125, 123.914794921875, 136.6578369140625, 149.03271484375, 160.6646728515625, 171.2481689453125, 180.5816650390625, 188.5797119140625, 195.2608642578125, 200.720703125, 205.10205078125, 208.565185546875, 211.2705078125, 213.363525390625, 214.97119140625, 216.198974609375, 217.13232421875, 217.83984375, 218.37451171875, 218.7783203125, 219.08203125, 219.310546875, 219.482421875, 219.6123046875 !   [m]
REMAPPING_SCHEME = "PPM_H4"     ! default = "PLM"
                                ! This sets the reconstruction scheme used for vertical remapping for all
                                ! variables. It can be one of the following schemes:
                                ! PCM         (1st-order accurate)
                                ! PLM         (2nd-order accurate)
                                ! PLM_HYBGEN  (2nd-order accurate)
                                ! PPM_H4      (3rd-order accurate)
                                ! PPM_IH4     (3rd-order accurate)
                                ! PPM_HYBGEN  (3rd-order accurate)
                                ! WENO_HYBGEN (3rd-order accurate)
                                ! PQM_IH4IH3  (4th-order accurate)
                                ! PQM_IH6IH5  (5th-order accurate)

! === module MOM_state_initialization ===
INIT_LAYERS_FROM_Z_FILE = True  !   [Boolean] default = False
                                ! If true, initialize the layer thicknesses, temperatures, and salinities from a
                                ! Z-space file on a latitude-longitude grid.

! === module MOM_initialize_layers_from_Z ===
TEMP_SALT_Z_INIT_FILE = "ocean_temp_salt.res.nc" ! default = "temp_salt_z.nc"
                                ! The name of the z-space input file used to initialize temperatures (T) and
                                ! salinities (S). If T and S are not in the same file, TEMP_Z_INIT_FILE and
                                ! SALT_Z_INIT_FILE must be set.
Z_INIT_FILE_PTEMP_VAR = "temp"  ! default = "ptemp"
                                ! The name of the potential temperature variable in TEMP_Z_INIT_FILE.
Z_INIT_ALE_REMAPPING = True     !   [Boolean] default = False
                                ! If True, then remap straight to model coordinate from file.
TEMP_SALT_INIT_VERTICAL_REMAP_ONLY = True !   [Boolean] default = False
                                ! If true, initial conditions are on the model horizontal grid. Extrapolation
                                ! over missing ocean values is done using an ICE-9 procedure with vertical ALE
                                ! remapping .

! === module MOM_diag_mediator ===
DIAG_COORD_DEF_Z = "FILE:ocean_vgrid.nc,interfaces=zeta" ! default = "WOA09"
                                ! Determines how to specify the coordinate resolution. Valid options are:
                                !  PARAM       - use the vector-parameter DIAG_COORD_RES_Z
                                !  UNIFORM[:N] - uniformly distributed
                                !  FILE:string - read from a file. The string specifies
                                !                the filename and variable name, separated
                                !                by a comma or space, e.g. FILE:lev.nc,dz
                                !                or FILE:lev.nc,interfaces=zw
                                !  WOA09[:N]   - the WOA09 vertical grid (approximately)
                                !  FNC1:string - FNC1:dz_min,H_total,power,precision
                                !  HYBRID:string - read from a file. The string specifies
                                !                the filename and two variable names, separated
                                !                by a comma or space, for sigma-2 and dz. e.g.
                                !                HYBRID:vgrid.nc,sigma2,dz

! === module MOM_MEKE ===
USE_MEKE = True                 !   [Boolean] default = False
                                ! If true, turns on the MEKE scheme which calculates a sub-grid mesoscale eddy
                                ! kinetic energy budget.
MEKE_GMCOEFF = 0.0              !   [nondim] default = -1.0
                                ! The efficiency of the conversion of potential energy into MEKE by the
                                ! thickness mixing parameterization. If MEKE_GMCOEFF is negative, this
                                ! conversion is not used or calculated.
MEKE_GEOMETRIC = True           !   [Boolean] default = False
                                ! If MEKE_GEOMETRIC is true, uses the GM coefficient formulation from the
                                ! GEOMETRIC framework (Marshall et al., 2012).
MEKE_EQUILIBRIUM_ALT = True     !   [Boolean] default = False
                                ! If true, use an alternative formula for computing the (equilibrium)initial
                                ! value of MEKE.
MEKE_EQUILIBRIUM_RESTORING = True !   [Boolean] default = False
                                ! If true, restore MEKE back to its equilibrium value, which is calculated at
                                ! each time step.
MEKE_RESTORING_TIMESCALE = 1.0E+07 !   [s] default = 1.0E+06
                                ! The timescale used to nudge MEKE toward its equilibrium value.
MEKE_VISC_DRAG = False          !   [Boolean] default = True
                                ! If true, use the vertvisc_type to calculate the bottom drag acting on MEKE.
MEKE_KHTH_FAC = 1.0             !   [nondim] default = 0.0
                                ! A factor that maps MEKE%Kh to KhTh.
MEKE_KHTR_FAC = 1.0             !   [nondim] default = 0.0
                                ! A factor that maps MEKE%Kh to KhTr.
MEKE_KHMEKE_FAC = 0.5           !   [nondim] default = 0.0
                                ! A factor that maps MEKE%Kh to Kh for MEKE itself.
MEKE_MIN_LSCALE = True          !   [Boolean] default = False
                                ! If true, use a strict minimum of provided length scales rather than harmonic
                                ! mean.
MEKE_VISCOSITY_COEFF_KU = 0.2   !   [nondim] default = 0.0
                                ! If non-zero, is the scaling coefficient in the expression forviscosity used to
                                ! parameterize harmonic lateral momentum mixing byunresolved eddies represented
                                ! by MEKE. Can be negative torepresent backscatter from the unresolved eddies.
MEKE_ALPHA_DEFORM = 1.0         !   [nondim] default = 0.0
                                ! If positive, is a coefficient weighting the deformation scale in the
                                ! expression for mixing length used in MEKE-derived diffusivity.
MEKE_ALPHA_RHINES = 1.0         !   [nondim] default = 0.0
                                ! If positive, is a coefficient weighting the Rhines scale in the expression for
                                ! mixing length used in MEKE-derived diffusivity.
MEKE_ALPHA_EADY = 1.0           !   [nondim] default = 0.0
                                ! If positive, is a coefficient weighting the Eady length scale in the
                                ! expression for mixing length used in MEKE-derived diffusivity.
MEKE_ALPHA_FRICT = 1.0          !   [nondim] default = 0.0
                                ! If positive, is a coefficient weighting the frictional arrest scale in the
                                ! expression for mixing length used in MEKE-derived diffusivity.
MEKE_ALPHA_GRID = 1.0           !   [nondim] default = 0.0
                                ! If positive, is a coefficient weighting the grid-spacing as a scale in the
                                ! expression for mixing length used in MEKE-derived diffusivity.
MEKE_ADVECTION_FACTOR = 1.0     !   [nondim] default = 0.0
                                ! A scale factor in front of advection of eddy energy. Zero turns advection off.
                                ! Using unity would be normal but other values could accommodate a mismatch
                                ! between the advecting barotropic flow and the vertical structure of MEKE.

! === module MOM_lateral_mixing_coeffs ===
USE_VARIABLE_MIXING = True      !   [Boolean] default = False
                                ! If true, the variable mixing code will be called.  This allows diagnostics to
                                ! be created even if the scheme is not used.  If KHTR_SLOPE_CFF>0 or
                                ! KhTh_Slope_Cff>0, this is set to true regardless of what is in the parameter
                                ! file.
RESOLN_SCALED_KH = True         !   [Boolean] default = False
                                ! If true, the Laplacian lateral viscosity is scaled away when the first
                                ! baroclinic deformation radius is well resolved.
RESOLN_SCALED_KHTH = True       !   [Boolean] default = False
                                ! If true, the interface depth diffusivity is scaled away when the first
                                ! baroclinic deformation radius is well resolved.
KHTH_USE_EBT_STRUCT = True      !   [Boolean] default = False
                                ! If true, uses the equivalent barotropic structure as the vertical structure of
                                ! thickness diffusivity.
KHTH_SLOPE_CFF = 0.01           !   [nondim] default = 0.0
                                ! The nondimensional coefficient in the Visbeck formula for the interface depth
                                ! diffusivity
USE_STORED_SLOPES = True        !   [Boolean] default = False
                                ! If true, the isopycnal slopes are calculated once and stored for re-use. This
                                ! uses more memory but avoids calling the equation of state more times than
                                ! should be necessary.
KH_RES_SCALE_COEF = 0.4         !   [nondim] default = 1.0
                                ! A coefficient that determines how KhTh is scaled away if RESOLN_SCALED_... is
                                ! true, as F = 1 / (1 + (KH_RES_SCALE_COEF*Rd/dx)^KH_RES_FN_POWER).

! === module MOM_set_visc ===
CHANNEL_DRAG = True             !   [Boolean] default = False
                                ! If true, the bottom drag is exerted directly on each layer proportional to the
                                ! fraction of the bottom it overlies.
HBBL = 10.0                     !   [m]
                                ! The thickness of a bottom boundary layer with a viscosity increased by
                                ! KV_EXTRA_BBL if BOTTOMDRAGLAW is not defined, or the thickness over which
                                ! near-bottom velocities are averaged for the drag law if BOTTOMDRAGLAW is
                                ! defined but LINEAR_DRAG is not.
DRAG_BG_VEL = 0.1               !   [m s-1] default = 0.0
                                ! DRAG_BG_VEL is either the assumed bottom velocity (with LINEAR_DRAG) or an
                                ! unresolved  velocity that is combined with the resolved velocity to estimate
                                ! the velocity magnitude.  DRAG_BG_VEL is only used when BOTTOMDRAGLAW is
                                ! defined.
BBL_THICK_MIN = 0.1             !   [m] default = 0.0
                                ! The minimum bottom boundary layer thickness that can be used with
                                ! BOTTOMDRAGLAW. This might be Kv/(cdrag*drag_bg_vel) to give Kv as the minimum
                                ! near-bottom viscosity.
KV = 1.0E-04                    !   [m2 s-1]
                                ! The background kinematic viscosity in the interior. The molecular value, ~1e-6
                                ! m2 s-1, may be used.

! === module MOM_thickness_diffuse ===
KHTH_USE_FGNV_STREAMFUNCTION = True !   [Boolean] default = False
                                ! If true, use the streamfunction formulation of Ferrari et al., 2010, which
                                ! effectively emphasizes graver vertical modes by smoothing in the vertical.
FGNV_C_MIN = 0.01               !   [m s-1] default = 0.0
                                ! A minium wave speed used in the Ferrari et al., 2010, streamfunction
                                ! formulation.
USE_KH_IN_MEKE = True           !   [Boolean] default = False
                                ! If true, uses the thickness diffusivity calculated here to diffuse MEKE.

! === module MOM_porous_barriers ===

! === module MOM_dynamics_split_RK2 ===
TIDES = True                    !   [Boolean] default = False
                                ! If true, apply tidal momentum forcing.

! === module MOM_continuity ===

! === module MOM_continuity_PPM ===
ETA_TOLERANCE = 1.0E-06         !   [m] default = 2.5E-09
                                ! The tolerance for the differences between the barotropic and baroclinic
                                ! estimates of the sea surface height due to the fluxes through each face.  The
                                ! total tolerance for SSH is 4 times this value.  The default is
                                ! 0.5*NK*ANGSTROM, and this should not be set less than about
                                ! 10^-15*MAXIMUM_DEPTH.
VELOCITY_TOLERANCE = 1.0E-04    !   [m s-1] default = 3.0E+08
                                ! The tolerance for barotropic velocity discrepancies between the barotropic
                                ! solution and  the sum of the layer thicknesses.

! === module MOM_CoriolisAdv ===
BOUND_CORIOLIS = True           !   [Boolean] default = False
                                ! If true, the Coriolis terms at u-points are bounded by the four estimates of
                                ! (f+rv)v from the four neighboring v-points, and similarly at v-points.  This
                                ! option would have no effect on the SADOURNY Coriolis scheme if it were
                                ! possible to use centered difference thickness fluxes.

! === module MOM_tidal_forcing ===
TIDE_M2 = True                  !   [Boolean] default = False
                                ! If true, apply tidal momentum forcing at the M2 frequency. This is only used
                                ! if TIDES is true.
TIDE_SAL_SCALAR_VALUE = 0.094   !   [m m-1]
                                ! The constant of proportionality between sea surface height (really it should
                                ! be bottom pressure) anomalies and bottom geopotential anomalies. This is only
                                ! used if TIDES and TIDE_USE_SAL_SCALAR are true.

! === module MOM_PressureForce ===

! === module MOM_PressureForce_FV ===
MASS_WEIGHT_IN_PRESSURE_GRADIENT = True !   [Boolean] default = False
                                ! If true, use mass weighting when interpolating T/S for integrals near the
                                ! bathymetry in FV pressure gradient calculations.

! === module MOM_Zanna_Bolton ===

! === module MOM_hor_visc ===
LAPLACIAN = True                !   [Boolean] default = False
                                ! If true, use a Laplacian horizontal viscosity.
AH = 1.0E+12                    !   [m4 s-1] default = 0.0
                                ! The background biharmonic horizontal viscosity.
LEITH_AH = True                 !   [Boolean] default = False
                                ! If true, use a biharmonic Leith nonlinear eddy viscosity.
LEITH_BI_CONST = 128.0          !   [nondim] default = 0.0
                                ! The nondimensional biharmonic Leith constant, typical values are thus far
                                ! undetermined.

! === module MOM_vert_friction ===
HMIX_FIXED = 0.5                !   [m]
                                ! The prescribed depth over which the near-surface viscosity and diffusivity are
                                ! elevated when the bulk mixed layer is not used.
MAXVEL = 6.0                    !   [m s-1] default = 3.0E+08
                                ! The maximum velocity allowed before the velocity components are truncated.
CFL_TRUNCATE_RAMP_TIME = 7200.0 !   [s] default = 0.0
                                ! The time over which the CFL truncation value is ramped up at the beginning of
                                ! the run.

! === module MOM_barotropic ===
BOUND_BT_CORRECTION = True      !   [Boolean] default = False
                                ! If true, the corrective pseudo mass-fluxes into the barotropic solver are
                                ! limited to values that require less than maxCFL_BT_cont to be accommodated.
BT_PROJECT_VELOCITY = True      !   [Boolean] default = False
                                ! If true, step the barotropic velocity first and project out the velocity
                                ! tendency by 1+BEBT when calculating the transport.  The default (false) is to
                                ! use a predictor continuity step to find the pressure field, and then to do a
                                ! corrector continuity step using a weighted average of the old and new
                                ! velocities, with weights of (1-BEBT) and BEBT.
BEBT = 0.2                      !   [nondim] default = 0.1
                                ! BEBT determines whether the barotropic time stepping uses the forward-backward
                                ! time-stepping scheme or a backward Euler scheme. BEBT is valid in the range